23
4-ph 
C          1.450000        4.880000        5.650000
C          2.010000        5.990000        5.020000
C          3.400000        6.110000        4.910000
C          4.270000        5.140000        5.430000
C          3.680000        4.040000        6.090000
C          2.290000        3.900000        6.190000
C          5.740000        5.240000        5.260000
C          6.390000        6.490000        5.210000
C          7.760000        6.600000        4.950000
C          8.510000        5.440001        4.770000
C          7.920000        4.200000        4.850000
C          6.540000        4.100000        5.090000
O          9.850000        5.500000        4.480000
H          0.370000        4.770000        5.720000
H          1.360000        6.750000        4.600000
H          3.790000        6.970000        4.380000
H          4.300000        3.260000        6.540000
H          1.860000        3.030000        6.680000
H          5.830000        7.410000        5.360000
H          8.220000        7.580000        4.900000
H          8.510000        3.300000        4.720000
H          6.100000        3.110000        5.110000
H         10.089999        6.420000        4.320000
