17
anth 
C          1.890000        1.770000        3.310000
C          1.140000        2.940000        3.370000
C          1.770000        4.180000        3.360000
C          3.160000        4.280000        3.250000
C          3.920000        3.090000        3.240000
C          3.280000        1.840000        3.230000
C          5.410000        3.170000        3.120000
O          5.980000        4.060000        2.520000
O          6.060000        2.160000        3.750000
N          3.760000        5.550000        3.390000
H          1.390000        0.800000        3.310000
H          0.050000        2.890000        3.440000
H          1.170000        5.080000        3.440000
H          3.840000        0.920000        3.150000
H          5.510000        1.630000        4.350000
H          3.200000        6.310000        3.010000
H          4.710000        5.570000        3.010000
