30
benz 
C          1.450000        5.110000        5.990000
C          2.360000        4.070000        5.950000
C          3.730000        4.340000        5.960000
C          4.240000        5.670000        6.000000
C          3.290000        6.710000        6.030000
C          1.910000        6.430000        6.030000
C          3.720000        8.040000        6.060000
C          5.080000        8.360001        6.030000
C          6.040000        7.350000        6.000000
C          7.410000        7.680000        5.960000
C          8.410000        6.700000        5.970000
C          9.780000        7.030000        5.930000
C         10.750000        6.040000        5.970000
C         10.380000        4.700000        6.060000
C          9.030000        4.360000        6.080000
C          8.040000        5.350000        6.030000
C          6.670000        5.020000        6.040000
C          5.640000        5.990000        6.010000
H          0.380000        4.910000        5.980000
H          2.010000        3.040000        5.900000
H          4.400000        3.490000        5.920000
H          1.180000        7.230000        6.060000
H          3.000000        8.860000        6.090000
H          5.370000        9.400000        6.040000
H          7.700000        8.730000        5.920000
H         10.089999        8.070000        5.860000
H         11.809999        6.300000        5.950000
H         11.139999        3.920000        6.100000
H          8.750000        3.310000        6.140000
H          6.420000        3.960000        6.070000
