30
chlo 
O          4.440000        5.330000        4.270000
S          4.180000        5.650000        5.660000
O          2.820000        5.760000        6.140000
C          5.010000        4.490000        6.710000
C          4.920000        4.620000        8.100000
C          5.610000        3.730000        8.920000
C          6.380000        2.710000        8.349999
Cl         7.260000        1.640000        9.370000
C          6.450000        2.560000        6.970000
C          5.760000        3.450000        6.140000
N          4.900000        7.110000        6.010000
C          6.260000        7.330000        5.990000
O          7.080000        6.470000        5.690000
N          6.600000        8.590000        6.370000
C          7.980000        9.040000        6.390000
C          8.480000        9.460000        5.010000
C          7.760000       10.690001        4.470000
H          4.320000        5.410000        8.540000
H          5.560000        3.840000       10.000000
H          7.040000        1.770000        6.530000
H          5.830000        3.340000        5.060000
H          4.250000        7.790000        6.380000
H          5.870000        9.280000        6.490000
H          8.600000        8.230000        6.770000
H          8.040000        9.870000        7.100000
H          8.380000        8.640000        4.300000
H          9.550000        9.690000        5.090000
H          6.700000       10.490000        4.320000
H          8.190001       10.980000        3.510000
H          7.860000       11.530000        5.160000
