54
cilo 
C          6.770000       13.570000       14.900000
C          8.240000       13.830000       15.210000
C          9.080000       12.550000       15.210000
C          8.870000       11.640000       13.980000
C          7.370000       11.390000       13.760000
C          6.570000       12.690001       13.670000
N          9.530000       12.100000       12.770000
C         10.080000       11.390000       11.720000
N         10.590000       12.270000       10.880001
N         10.349999       13.509999       11.400000
N          9.700001       13.420000       12.539999
C         10.100000        9.910000       11.549999
C         10.110001        9.550000       10.050000
C         10.200000        8.050000        9.770000
C         10.210000        7.820000        8.260000
O         10.310000        6.420000        7.960000
C         10.260000        6.100000        6.630000
C         10.190001        7.020000        5.570000
C         10.080000        6.580000        4.240000
C         10.020000        5.210000        3.980000
C         10.120000        4.290000        5.010000
C         10.250000        4.730000        6.330000
N          9.780000        4.780000        2.670000
C          9.720000        5.610000        1.580000
O          9.330000        5.210000        0.490000
C         10.270000        7.000000        1.780000
C          9.900000        7.580000        3.140000
H          6.250000       14.530000       14.750000
H          6.300000       13.099999       15.760000
H          8.320000       14.320001       16.180000
H          8.640000       14.550000       14.480000
H          8.800000       11.970000       16.109999
H         10.140000       12.799999       15.320000
H          9.340000       10.679999       14.210000
H          6.980000       10.809999       14.600000
H          7.200000       10.800000       12.860001
H          5.500000       12.460001       13.559999
H          6.850000       13.240000       12.760000
H          9.230000        9.450000       12.030000
H         11.000000        9.510000       12.030000
H         10.959999       10.050000        9.559999
H          9.200000        9.960000        9.580000
H          9.360000        7.520000       10.230000
H         11.110000        7.630000       10.210000
H         11.059999        8.349999        7.820000
H          9.270000        8.210000        7.840000
H         10.190001        8.090000        5.750000
H         10.100000        3.220000        4.810000
H         10.310000        4.010000        7.140000
H          9.550000        3.810000        2.500000
H          9.900000        7.660000        0.990000
H         11.360001        6.930000        1.680000
H          8.840000        7.890000        3.130000
H         10.510000        8.470000        3.320000
