24
diur 
C          2.830000        7.980000        7.570000
N          4.280000        7.880000        7.610000
C          5.020000        8.820001        8.430000
C          4.840000        6.870000        6.820000
O          4.110000        6.160000        6.140000
N          6.210000        6.750000        6.890000
C          6.980000        5.870000        6.090000
C          6.480000        5.280000        4.920000
C          7.260000        4.390000        4.160000
C          8.550000        4.090000        4.570000
C          9.070000        4.690000        5.730000
C          8.290000        5.580000        6.470000
Cl         9.559999        2.990000        3.700000
Cl         6.540000        3.710000        2.750000
H          2.460000        8.790000        8.200000
H          2.400000        7.030000        7.910000
H          2.510000        8.150000        6.540000
H          4.340000        9.550000        8.890000
H          5.740000        9.350000        7.810000
H          5.540000        8.270000        9.220000
H          6.660000        7.150000        7.690000
H          5.490000        5.520000        4.550000
H         10.080000        4.460000        6.050000
H          8.719999        6.020000        7.370000
