57
dros
O          0.62070        0.00260       -0.07650
C          1.63320       -0.49110       -0.56160
C          2.28310       -1.73170       -0.02520
C          3.77610       -1.45290        0.03470
C          4.38660       -1.23080       -1.38250
C          3.45610       -0.29220       -2.21820
C          2.24870        0.10430       -1.76240
C          4.02900        0.38790       -3.39480
C          5.25330       -0.06000       -4.12850
C          5.33810        1.07280       -3.10980
C          5.81700        0.93840       -1.65270
C          5.84230       -0.58110       -1.26820
C          6.59960       -0.85430        0.04890
C          8.01910       -0.26050        0.02060
C          7.99170        1.25390       -0.20800
C          7.20180        1.55400       -1.51760
C          7.36910        3.04880       -1.65500
C          8.39790        3.68120       -2.54260
C          8.76900        3.34010       -1.12260
C          9.32580        1.99970       -0.60650
C         10.18030        1.25170       -1.63260
C         11.16370        0.52020       -0.76140
C         11.38250        1.55860        0.28170
O         12.41990        1.74900        0.89430
O         10.21810        2.25070        0.48320
C          7.42270        1.91310        1.08420
C          4.49630       -2.63220       -2.05480
H          2.03310       -2.57410       -0.67930
H          1.89540       -1.94040        0.97520
H          4.27250       -2.28360        0.55070
H          3.92710       -0.55790        0.65010
H          1.68080        0.89800       -2.23580
H          3.31180        0.94920       -4.00160
H          5.30130        0.18290       -5.18860
H          5.65730       -1.04290       -3.94870
H          5.50430        2.06290       -3.52140
H          5.12400        1.48100       -1.00600
H          6.47800       -1.06850       -2.02080
H          6.67210       -1.93610        0.21090
H          6.05260       -0.45330        0.90310
H          8.55900       -0.77150       -0.77970
H          8.53280       -0.50190        0.95990
H          7.73850        1.11410       -2.36770
H          6.54490        3.63720       -1.26810
H          8.27470        4.73550       -2.77390
H          8.81600        3.10550       -3.35760
H          8.87290        4.14800       -0.40500
H         10.72130        1.95860       -2.27190
H          9.65400        0.56370       -2.29740
H         12.07220        0.25000       -1.30200
H         10.74360       -0.36780       -0.27970
H          6.48500        1.47010        1.42820
H          7.22880        2.98630        0.98230
H          8.14130        1.80330        1.90820
H          3.62680       -2.85130       -2.68330
H          4.57400       -3.43400       -1.31150
H          5.38380       -2.73900       -2.68630
