30
efav 
C          2.780000        8.570000        3.280000
C          2.110000        7.230000        3.200000
C          3.610000        7.310000        3.230000
C          4.300000        6.900000        4.420000
C          4.970000        6.550000        5.480000
C          5.740000        6.130000        6.720000
C          6.490000        4.850000        6.420000
C          7.850000        4.920000        6.120000
C          8.600000        3.780000        5.830000
C          7.980000        2.530000        5.809999
C          6.620000        2.440000        6.070000
C          5.870000        3.590000        6.350000
Cl         5.840000        0.910000        6.020000
N          8.460000        6.160000        6.090000
C          7.870000        7.330000        6.470000
O          8.480000        8.389999        6.410000
O          6.630000        7.250000        6.990000
C          4.780000        6.030000        7.960000
F          3.480000        6.250000        7.630000
F          4.810000        4.810000        8.560000
F          5.090000        6.920000        8.930000
H          2.720000        9.110001        4.210000
H          2.770000        9.200000        2.400000
H          1.630000        6.950000        2.270000
H          1.580000        6.870000        4.080000
H          4.120000        7.110000        2.300000
H          9.670000        3.850000        5.610000
H          8.570000        1.640000        5.600000
H          4.800000        3.480000        6.530000
H          9.420000        6.260000        5.790000
