30
flut 
C          3.350000        8.059999        3.770000
C          4.720000        7.680000        3.210000
C          5.490000        8.950000        2.830000
C          5.530000        6.870000        4.220000
O          6.610000        7.280000        4.640000
N          4.950000        5.660000        4.570000
C          5.410000        4.790000        5.590000
C          6.320000        5.220000        6.570000
C          6.790000        4.350000        7.570000
C          6.320000        3.040000        7.570000
C          5.390000        2.600000        6.620000
C          4.930000        3.480000        5.630000
N          6.770000        2.080000        8.570000
O          7.980000        1.870000        8.640000
O          5.890000        1.540000        9.260000
C          7.750000        4.880000        8.610000
F          7.930000        6.230000        8.530000
F          7.300000        4.650000        9.880000
F          8.990000        4.340000        8.530000
H          2.790000        8.660000        3.050000
H          3.450000        8.630000        4.700000
H          2.750000        7.170000        4.000000
H          4.590000        7.070000        2.310000
H          5.690000        9.570000        3.720000
H          4.930000        9.559999        2.120000
H          6.460000        8.700000        2.380000
H          4.210000        5.310000        3.980000
H          6.660000        6.250000        6.590000
H          5.020000        1.570000        6.640000
H          4.220000        3.120000        4.900000
