43
glaf 
C          4.540000        3.520000        7.260000
C          3.700000        4.610000        7.440000
C          4.230000        5.910000        7.390000
C          5.590000        6.140000        7.140000
C          6.440000        5.020000        7.030000
C          5.900000        3.710000        7.070000
C          7.890000        5.180000        6.780000
O          8.380000        6.120000        6.180000
O          8.580000        4.120000        7.290000
C          9.910000        3.930000        6.800000
C         10.980000        4.850000        7.410000
C         11.120000        4.680000        8.920000
O         12.160000        5.530000        9.410000
O         12.259999        4.560000        6.820000
N          6.070000        7.460000        6.960000
C          5.700000        8.690001        7.560000
C          5.820000        9.900000        6.830000
C          6.150000        9.969999        5.460000
C          6.220000       11.190000        4.790000
C          5.970000       12.360000        5.490000
C          5.650000       12.320000        6.840000
C          5.540000       11.110000        7.510000
N          5.160000       11.139999        8.800000
C          5.000000        9.969999        9.440001
C          5.240000        8.740000        8.870000
Cl         6.040000       13.870000        4.670000
H          4.130000        2.510000        7.250000
H          2.630000        4.470000        7.580000
H          3.540000        6.750000        7.490000
H          6.540000        2.850000        6.930000
H          9.920000        4.010000        5.700000
H         10.170000        2.880000        7.010000
H         10.760000        5.900000        7.190000
H         11.400000        3.650000        9.180000
H         10.190001        4.930000        9.450000
H         12.840000        5.550000        8.710000
H         12.469999        3.630000        6.980000
H          7.000000        7.500000        6.530000
H          6.330000        9.049999        4.890000
H          6.440000       11.210001        3.720000
H          5.470000       13.240000        7.380000
H          4.660000       10.060000       10.470000
H          5.110000        7.840000        9.460000
