27
sulf 
C          7.230000        2.790000        7.680000
C          6.180000        1.930000        7.460000
N          5.390000        1.980000        6.370000
C          5.650000        2.980000        5.530000
N          6.660000        3.850000        5.600000
C          7.430000        3.740000        6.700000
N          4.900000        3.040000        4.370000
S          3.480000        3.890000        4.430000
O          2.810000        3.660000        3.170000
O          2.800000        3.650000        5.690000
C          4.020000        5.580000        4.420000
C          4.780000        6.020000        3.330000
C          5.250000        7.340000        3.300000
C          4.920000        8.240000        4.330000
C          4.180000        7.770000        5.420000
C          3.710000        6.450000        5.460000
N          5.510000        9.500000        4.360000
H          7.850000        2.740000        8.560000
H          5.940000        1.150000        8.180000
H          8.240000        4.460000        6.770000
H          5.050000        2.360000        3.650000
H          5.040000        5.340000        2.520000
H          5.870000        7.660000        2.470000
H          3.960000        8.430000        6.250000
H          3.120000        6.120000        6.310000
H          5.750000        9.870000        3.450000
H          5.000000       10.180000        4.920000
