30
tolf 
C          5.210000        3.950000        4.380000
C          6.490000        4.090000        5.180000
C          6.900000        5.300000        5.800000
C          8.210000        5.360000        6.310000
C          9.049999        4.250000        6.350000
C          8.580000        3.030000        5.880000
C          7.320000        2.950000        5.300000
Cl         6.810000        1.380000        4.760000
N          6.150000        6.530000        5.840000
C          4.740000        6.710000        5.890000
C          3.920000        5.730000        6.480000
C          2.530000        5.809999        6.380000
C          1.930000        6.890000        5.760000
C          2.720000        7.950000        5.310000
C          4.120000        7.880000        5.410000
C          4.860000        9.120000        5.000000
O          4.350000       10.230000        5.030000
O          6.130000        8.900000        4.600000
H          4.860000        4.910000        3.990000
H          4.430000        3.490000        4.990000
H          5.370000        3.330000        3.500000
H          8.610000        6.300000        6.710000
H         10.050000        4.320000        6.760000
H          9.220000        2.150000        5.940000
H          6.560000        7.140000        6.560000
H          4.350000        4.880000        6.990000
H          1.910000        5.000000        6.780000
H          0.850000        6.930000        5.640000
H          2.250000        8.830000        4.880000
H          6.360000        7.950000        4.560000
