8
urea
C          1.02210       -0.06990       -0.07590
O          0.41190       -0.05250       -1.13270
N          0.40980       -0.08970        1.12250
N          2.36630       -0.07110       -0.00690
H         -0.60100       -0.08970        1.12680
H          0.90620       -0.10410        1.99730
H          2.87540       -0.05670       -0.88000
H          2.87580       -0.08530        0.86030
