16
zoxa 
C          3.080000        5.930000        5.090000
C          4.280000        6.650000        5.080000
C          5.440001        5.880000        5.080000
C          5.470000        4.490000        5.080000
C          4.270000        3.780000        5.090000
C          3.080000        4.530000        5.090000
Cl         1.570000        3.690000        5.090000
N          6.770000        4.060000        5.070000
C          7.470000        5.170000        5.040000
O          6.730000        6.320000        5.060000
N          8.790000        5.320000        4.980000
H          2.140000        6.470000        5.090000
H          4.310000        7.730000        5.080000
H          4.260000        2.700000        5.090000
H          9.380000        4.520000        5.130000
H          9.200000        6.230000        5.140000
